[General]
network = Network_Setup
sim-time-limit = 100s
user-interface = Qtenv